Circuit: * E:\Git\Analog Circuit Simulations\Oscillators\Wein Bridge Oscilator\Wein_bridge_opamp_LTspice.asc

Direct Newton iteration failed to find .op point.  (Use ".option noopiter" to skip.)
Starting Gmin stepping
Gmin = 10
Gmin = 1.07374
vernier = 0.5
vernier = 0.25
vernier = 0.125
vernier = 0.0625
Gmin = 1.08884
vernier = 0.03125
vernier = 0.015625
Gmin = 1.03922
vernier = 0.0078125
vernier = 0.00390625
Gmin = 1.02313
vernier = 0.00520833
vernier = 0.00260417
Gmin = 1.01616
vernier = 0.00347222
vernier = 0.00173611
vernier = 0.00231481
Gmin = 1.01205
vernier = 0.00115741
vernier = 0.00154321
vernier = 0.000771604
Gmin = 1.0104
vernier = 0.00102881
Gmin = 1.00812
vernier = 0.000514403
vernier = 0.00068587
Gmin = 1.00704
vernier = 0.000514403
vernier = 0.00068587
vernier = 0.000514402
Gmin = 1.00622
Gmin = 0
Gmin stepping failed

Starting source stepping with srcstepmethod=0
Source Step = 3.0303%
Source Step = 12.1212%
Source Step = 19.697%
Source Step = 27.2727%
Source Step = 34.8485%
Source Step = 42.4242%
vernier = 0.375
Source Step = 52.6515%
Source Step = 64.0152%
Source Step = 75.3788%
Source Step = 86.7424%
Source Step = 98.1061%
Source stepping succeeded in finding the operating point.


Date: Tue Jul  2 10:37:56 2024
Total elapsed time: 0.433 seconds.

tnom = 27
temp = 27
method = modified trap
totiter = 55273
traniter = 48204
tranpoints = 15523
accept = 10982
rejected = 4541
matrix size = 11
fillins = 7
solver = Normal
Avg thread counts: 1.1/1.3/1.3/1.1
Matrix Compiler1: 992 bytes object code size  0.3/0.3/[0.1]
Matrix Compiler2: 1.22 KB object code size  0.3/0.3/[0.1]

