LTspice 24.0.12 for Windows
Circuit: * E:\Semester 5 210351M\Analog Circuit Design EN3013\Assignment\1\ringOsci.asc
Start Time: Tue Dec 24 23:34:41 2024
solver = Normal
Maximum thread count: 12
tnom = 27
temp = 27
method = modified trap
Direct Newton iteration for .op point succeeded.
Total elapsed time: 0.972 seconds.

